STAAD SPACE
START JOB INFORMATION
ENGINEER DATE 02-May-25
END JOB INFORMATION
INPUT WIDTH 79
UNIT METER KN
JOINT COORDINATES
1 0 0 0; 2 3.61501 0 0; 3 7.00001 0 0; 4 0 0 3.00001; 5 3.00001 0 3.00001;
6 7.00001 0 3.00001; 7 0 0 7.00001; 8 3.61501 0 7.00001; 9 7.00001 0 7.00001;
10 0 4.00001 0; 11 3.61501 4.00001 0; 12 7.00001 4.00001 0;
13 0 4.00001 3.00001; 14 3.00001 4.00001 3.00001; 15 7.00001 4.00001 3.00001;
16 0 4.00001 7.00001; 17 3.61501 4.00001 7.00001; 18 7.00001 4.00001 7.00001;
19 0 7.10001 0; 20 3.61501 7.10001 0; 21 7.00001 7.10001 0;
22 0 7.10001 3.00001; 23 3.00001 7.10001 3.00001; 24 7.00001 7.10001 3.00001;
25 0 7.10001 7.00001; 26 3.61501 7.10001 7.00001; 27 7.00001 7.10001 7.00001;
28 1 4.00001 3.00001; 29 1 4.00001 7.00001; 30 3.61501 4.00001 3.00001;
31 3.61501 7.10001 3.00001; 32 0 7.10001 3.50001; 33 7.00001 7.10001 3.50001;
34 3.61501 7.10001 3.50001; 35 -0.485001 7.10001 3.50001;
36 0.615001 7.10001 3.50001; 37 1.215 7.10001 3.50001;
38 1.815 7.10001 3.50001; 39 2.415 7.10001 3.50001; 40 3.01501 7.10001 3.50001;
41 4.21501 7.10001 3.50001; 42 4.81501 7.10001 3.50001;
43 5.41501 7.10001 3.50001; 44 6.01501 7.10001 3.50001;
45 6.61502 7.10001 3.50001; 46 7.21502 7.10001 3.50001;
47 7.71502 7.10001 3.50001; 48 3.61501 8.90001 3.50001; 49 0 7.32201 3.50001;
50 0.615001 7.60401 3.50001; 51 7.21502 7.32901 3.50001;
52 1.215 7.86321 3.50001; 53 1.815 8.12241 3.50001; 54 2.41501 8.38161 3.50001;
55 3.01501 8.64081 3.50001; 56 4.21501 8.63818 3.50001;
57 4.81501 8.37635 3.50001; 58 5.41501 8.11451 3.50001;
59 6.01502 7.85268 3.50001; 60 6.61502 7.59084 3.50001;
MEMBER INCIDENCES
1 1 10; 2 2 11; 3 3 12; 4 4 13; 5 5 14; 6 6 15; 7 7 16; 8 8 17; 9 9 18;
10 10 19; 11 11 20; 12 12 21; 13 13 22; 14 14 23; 15 15 24; 16 16 25; 17 17 26;
18 18 27; 19 10 11; 20 11 12; 21 13 28; 22 28 14; 23 14 30; 24 30 15; 25 16 29;
26 29 17; 27 17 18; 28 10 13; 29 13 16; 30 28 29; 31 11 30; 32 30 17; 33 12 15;
34 15 18; 35 19 20; 36 20 21; 37 22 23; 38 23 31; 39 31 24; 40 25 26; 41 26 27;
42 19 22; 43 22 32; 44 32 25; 45 20 31; 46 31 34; 47 34 26; 48 21 24; 49 24 33;
50 33 27; 51 35 32; 52 32 36; 53 36 37; 54 37 38; 55 38 39; 56 39 40; 57 40 34;
58 34 41; 59 41 42; 60 42 43; 61 43 44; 62 44 45; 63 45 33; 64 33 46; 65 46 47;
66 35 49; 67 49 50; 68 50 52; 69 52 53; 70 53 54; 71 54 55; 72 55 48; 73 48 56;
74 56 57; 75 57 58; 76 58 59; 77 59 60; 78 60 51; 79 51 47; 80 32 49; 81 36 50;
82 37 52; 83 38 53; 84 39 54; 85 40 55; 86 34 48; 87 41 56; 88 42 57; 89 43 58;
90 44 59; 91 45 60; 92 46 51; 93 49 36; 94 50 37; 95 52 38; 96 53 39; 97 54 40;
98 55 34; 99 34 56; 100 41 57; 101 42 58; 102 43 59; 103 44 60; 104 45 51;
START GROUP DEFINITION
MEMBER
_C1 1 TO 18
_B1 19 TO 34
_RB 35 TO 50
_CONC 1 TO 50
_BC 51 TO 65
_TC 66 TO 79
_WB 80 TO 104
FLOOR
_F-1 19 TO 24 28 33
_F-2 22 TO 24 26 27 30 32 34
_F-3 21 25 29 30
_F-4 35 TO 44 46 TO 50
END GROUP DEFINITION
DEFINE MATERIAL START
ISOTROPIC CONCRETE
E 2.17184e+07
POISSON 0.17
DENSITY 23.5615
ALPHA 5.5e-06
DAMP 0.05
G 9.28137e+06
TYPE CONCRETE
STRENGTH FCU 27578.9
END DEFINE MATERIAL
MEMBER PROPERTY
1 TO 18 PRIS YD 0.2 ZD 0.3
19 TO 34 PRIS YD 0.35 ZD 0.2
35 TO 50 PRIS YD 0.3 ZD 0.2
CONSTANTS
BETA 90 MEMB 2 5 8 11 14 17
MATERIAL CONCRETE MEMB 1 TO 50
SUPPORTS
1 TO 9 FIXED
DEFINE UBC LOAD
ZONE 0.4 I 1 K 0.25
*DEFINE UBC LOAD
*ZONE 0.4 I 1 RWX 8.5 RWZ 5.5 STYP 4 NA 1 NV 1
SELFWEIGHT 1 
FLOOR WEIGHT
_F-1 FLOAD 2.36
_F-2 FLOAD 2.36
*TILES AND CEILINGS
FLOOR WEIGHT
_F-1 FLOAD 1.2
_F-2 FLOAD 1.2
_F-4 FLOAD 1.2
*OUTER WALL
MEMBER WEIGHT
19 20 25 TO 29 33 34 UNI 8.904
*INNER WALL
MEMBER WEIGHT
23 24 31 32 UNI 5.936
30 UNI 5.936
24 TO 26 28 UNI 5.936
28 UNI 8.31
25 26 UNI 5.936
24 UNI 7.123
31 UNI 3.473
DEFINE WIND LOAD
TYPE 1 WIND 1
<! STAAD PRO GENERATED DATA DO NOT MODIFY !!!
ASCE-7-2010:PARAMS 320.000 KMPH 0 1 1 0 0.000 FT 0.000 FT 0.000 FT 1 2 8.900 -
M 7.000 M 7.000 M 2.000 0.010 0 0 0 0 0 0.695 1.000 1.000 0.850 0 0 0 0 -
0.872 0.800 -0.180
!> END GENERATED DATA BLOCK
INT 2.168 2.168 2.201 2.233 2.264 2.293 2.321 2.348 2.374 2.399 2.424 2.447 -
2.47 2.493 2.514 HEIG 0 4.572 4.905 5.238 5.571 5.904 6.237 6.57 6.902 7.235 -
7.568 7.901 8.234 8.567 8.9
TYPE 2 WIND 2
<! STAAD PRO GENERATED DATA DO NOT MODIFY !!!
ASCE-7-2010:PARAMS 320.000 KMPH 0 1 1 0 0.000 FT 0.000 FT 0.000 FT 1 2 8.900 -
M 7.000 M 7.000 M 2.000 0.010 0 0 0 0 0 0.695 1.000 1.000 0.850 0 0 0 0 -
0.872 0.800 -0.180
!> END GENERATED DATA BLOCK
INT 2.168 2.168 2.201 2.233 2.264 2.293 2.321 2.348 2.374 2.399 2.424 2.447 -
2.47 2.493 2.514 HEIG 0 4.572 4.905 5.238 5.571 5.904 6.237 6.57 6.902 7.235 -
7.568 7.901 8.234 8.567 8.9
******************************PRIMARY LOADS*
LOAD 7 SEISMIC LOAD (EMPTY)  [E(+X)]
UBC LOAD X 1
PERFORM ANALYSIS
CHANGE
LOAD 8 SEISMIC LOAD (OPERATION)  [E(-X)]
UBC LOAD X -1
PERFORM ANALYSIS
CHANGE
LOAD 9 SEISMIC LOAD (TESTING)  [E(+Z)]
UBC LOAD Z 1
PERFORM ANALYSIS
CHANGE
LOAD 10 SEISMIC LOAD ALONG +X  [E(-Z)]
UBC LOAD Z -1
PERFORM ANALYSIS
CHANGE
LOAD 1 DEAD LOAD  [DL]
SELFWEIGHT Y -1 
FLOOR LOAD
_F-1 FLOAD -2.36 GY
_F-2 FLOAD -2.36 GY
*TILES AND CEILINGS
FLOOR LOAD
_F-1 FLOAD -1.2 GY
_F-2 FLOAD -1.2 GY
_F-4 FLOAD -1.2 GY
*OUTER WALL
MEMBER LOAD
19 20 25 TO 29 33 34 UNI GY -8.904
*INNER WALL
MEMBER LOAD
23 24 31 32 UNI GY -5.936
30 UNI GY -5.936 0.001 3
24 TO 26 28 UNI GY -5.936
28 UMOM X -8.31
25 26 UMOM X -5.936
24 UMOM X 7.123 1.385 3.385
31 UMOM X -3.473
LOAD 2 LIVE LOAD  [LL]
FLOOR LOAD
_F-1 FLOAD -1.9 GY
_F-2 FLOAD -1.9 GY
_F-3 FLOAD -2.4 GY
LOAD 3 WIND LOAD ALONG +X  [W(+X)]
WIND LOAD X 1 TYPE 1
LOAD 4 WIND LOAD ALONG -X  [W(-X)]
WIND LOAD X -1 TYPE 1
LOAD 5 WIND LOAD ALONG +Z  [W(+Z)]
WIND LOAD Z 1 TYPE 2
LOAD 6 WIND LOAD ALONG -Z  [W(-Z)]
WIND LOAD Z -1 TYPE 2
**********LOAD COMBINATION FOR STEEL*********
LOAD COMB 101 1.4DL
1 1.4 
LOAD COMB 102 1.2DL+1.6LL
1 1.2 2 1.6 
LOAD COMB 103 1.2DL+0.5LL+1.3W(+X)
1 1.2 2 0.5 3 1.3 
LOAD COMB 104 1.2DL+0.5LL+1.3W(-X)
1 1.2 2 0.5 4 1.3 
LOAD COMB 105 1.2DL+0.5LL+1.3W(+Z)
1 1.2 2 0.5 5 1.3 
LOAD COMB 106 1.2DL+0.5LL+1.3W(-Z)
1 1.2 2 0.5 6 1.3 
LOAD COMB 107 0.9DL+1.3W(+X)
1 0.9 3 1.3 
LOAD COMB 108 0.9DL+1.3W(-X)
1 0.9 4 1.3 
LOAD COMB 109 0.9DL+1.3W(+Z)
1 0.9 5 1.3 
LOAD COMB 110 0.9DL+1.3W(-Z)
1 0.9 6 1.3 
LOAD COMB 111 1.2DL+0.5LL+1E(+X)
1 1.2 2 0.5 7 1.0 
LOAD COMB 112 1.2DL+0.5LL+1E(-X)
1 1.2 2 0.5 8 1.0 
LOAD COMB 113 1.2DL+0.5LL+1E(+Z)
1 1.2 2 0.5 9 1.0 
LOAD COMB 114 1.2DL+0.5LL+1E(-Z)
1 1.2 2 0.5 10 1.0 
LOAD COMB 115 0.9DL+1E(+X)
1 0.9 7 1.0 
LOAD COMB 116 0.9DL+1E(-X)
1 0.9 8 1.0 
LOAD COMB 117 0.9DL+1E(+Z)
1 0.9 9 1.0 
LOAD COMB 118 0.9DL+1E(-Z)
1 0.9 10 1.0 
**********LOAD COMBINATION FOR CONCRETE*********
LOAD COMB 1001 1.4DL
1 1.4 
LOAD COMB 1002 1.2DL+1.6LL
1 1.2 2 1.6 
LOAD COMB 1003 1.2DL+1LL+1.6W(+X)
1 1.2 2 1.0 3 1.6 
LOAD COMB 1004 1.2DL+1LL+1.6W(-X)
1 1.2 2 1.0 4 1.6 
LOAD COMB 1005 1.2DL+1LL+1.6W(+Z)
1 1.2 2 1.0 5 1.6 
LOAD COMB 1006 1.2DL+1LL+1.6W(-Z)
1 1.2 2 1.0 6 1.6 
LOAD COMB 1007 1.2DL+0.8W(+X)
1 1.2 3 0.8 
LOAD COMB 1008 1.2DL+0.8W(-X)
1 1.2 4 0.8 
LOAD COMB 1009 1.2DL+0.8W(+Z)
1 1.2 5 0.8 
LOAD COMB 1010 1.2DL+0.8W(-Z)
1 1.2 6 0.8 
LOAD COMB 1011 0.9DL+1.6W(+X)
1 0.9 3 1.6 
LOAD COMB 1012 0.9DL+1.6W(-X)
1 0.9 4 1.6 
LOAD COMB 1013 0.9DL+1.6W(+Z)
1 0.9 5 1.6 
LOAD COMB 1014 0.9DL+1.6W(-Z)
1 0.9 6 1.6 
LOAD COMB 1015 1.2DL+1LL+1E(+X)
1 1.2 2 1.0 7 1.0 
LOAD COMB 1016 1.2DL+1LL+1E(-X)
1 1.2 2 1.0 8 1.0 
LOAD COMB 1017 1.2DL+1LL+1E(+Z)
1 1.2 2 1.0 9 1.0 
LOAD COMB 1018 1.2DL+1LL+1E(-Z)
1 1.2 2 1.0 10 1.0 
LOAD COMB 1019 0.9DL+1E(+X)
1 0.9 7 1.0 
LOAD COMB 1020 0.9DL+1E(-X)
1 0.9 8 1.0 
LOAD COMB 1021 0.9DL+1E(+Z)
1 0.9 9 1.0 
LOAD COMB 1022 0.9DL+1E(-Z)
1 0.9 10 1.0 
**********LOAD COMBINATION FOR SERVICEABILITY*********
LOAD COMB 2001 1DL+1LL
1 1.0 2 1.0 
LOAD COMB 2002 1DL+0.6W(+X)
1 1.0 3 0.6 
LOAD COMB 2003 1DL+0.6W(-X)
1 1.0 4 0.6 
LOAD COMB 2004 1DL+0.6W(+Z)
1 1.0 5 0.6 
LOAD COMB 2005 1DL+0.6W(-Z)
1 1.0 6 0.6 
LOAD COMB 2006 1DL+0.75LL+0.45W(+X)
1 1.0 2 0.75 3 0.45 
LOAD COMB 2007 1DL+0.75LL+0.45W(-X)
1 1.0 2 0.75 4 0.45 
LOAD COMB 2008 1DL+0.75LL+0.45W(+Z)
1 1.0 2 0.75 5 0.45 
LOAD COMB 2009 1DL+0.75LL+0.45W(-Z)
1 1.0 2 0.75 6 0.45 
LOAD COMB 2010 0.6DL+0.6W(+X)
1 0.6 3 0.6 
LOAD COMB 2011 0.6DL+0.6W(-X)
1 0.6 4 0.6 
LOAD COMB 2012 0.6DL+0.6W(+Z)
1 0.6 5 0.6 
LOAD COMB 2013 0.6DL+0.6W(-Z)
1 0.6 6 0.6 
LOAD COMB 2014 1DL+0.75LL+0.53E(+X)
1 1.0 2 0.75 7 0.53 
LOAD COMB 2015 1DL+0.75LL+0.53E(-X)
1 1.0 2 0.75 8 0.53 
LOAD COMB 2016 1DL+0.75LL+0.53E(+Z)
1 1.0 2 0.75 9 0.53 
LOAD COMB 2017 1DL+0.75LL+0.53E(-Z)
1 1.0 2 0.75 10 0.53 
LOAD COMB 2018 0.6DL+0.7E(+X)
1 0.6 7 0.7 
LOAD COMB 2019 0.6DL+0.7E(-X)
1 0.6 8 0.7 
LOAD COMB 2020 0.6DL+0.7E(+Z)
1 0.6 9 0.7 
LOAD COMB 2021 0.6DL+0.7E(-Z)
1 0.6 10 0.7 
******************************DESIGN PARAMETERS
PERFORM ANALYSIS
DEFINE ENVELOPE
101 TO 118 ENVELOPE 1 TYPE STRENGTH
1001 TO 1022 ENVELOPE 2 TYPE STRENGTH
2001 TO 2021 ENVELOPE 3 TYPE SERVICEABILITY
END DEFINE ENVELOPE
FINISH
